Readme/cdf.txt
Partial Description of the IEEE Common Data Format for the    
Exchange of Solved Load Flow Data

The complete description can be found in the paper "Common Data
Format for the Exchange of Solved Load Flow Data", Working Group on a
Common Format for the Exchange of Solved Load Flow Data, _IEEE
Transactions on Power Apparatus and Systems_, Vol. PAS-92, No. 6,
November/December 1973, pp. 1916-1925.

The data file has lines of up to 128 characters. The lines are grouped
into sections with section headers. Data items are entered in specific
columns. No blank items are allowed, enter zeros instead. Floating point
items should have explicit decimal point. No implicit decimal points
are used.

Data type codes: A - Alphanumeric (no special characters)
                 I - Integer
                 F - Floating point
                 * - Mandatory item

Title Data
==========

First card in file.

Columns  2- 9   Date, in format DD/MM/YY with leading zeros. If no date
                provided, use 0b/0b/0b where b is blank.

Columns 11-30   Originator's name (A)

Columns 32-37   MVA Base (F*)

Columns 39-42   Year (I)

Column  44      Season (S - Summer, W - Winter)

Column  46-73   Case identification (A)

Bus Data *
==========

Section start card *:
---------------------

Columns  1-16   BUS DATA FOLLOWS (not clear that any more than BUS in
                1-3 is significant) *

Columns  ?- ?   NNNNN ITEMS (column not clear, I would not count on this)

Bus data cards *:
-----------------

Columns  1- 4   Bus number (I) * 
Columns  7-17   Name (A) (left justify) *
Columns 19-20   Load flow area number (I) Don't use zero! *
Columns 21-23   Loss zone number (I)
Columns 25-26   Type (I) *      (0/2) 5
                 0 - Unregulated (load, PQ) (负载)
                 1 - Hold MVAR generation within voltage limits, (PQ)
                 2 - Hold voltage within VAR limits (gen, PV)   (发电站)
                 3 - Hold voltage and angle (swing, V-Theta) (must always
                      have one) (参考节点)
Columns 28-33   Final voltage, p.u. (F) *   (标幺电压) 6
Columns 34-40   Final angle, degrees (F) *  (相角) 7
Columns 41-49   Load MW (F) *           (负载有功功率) 8
Columns 50-59   Load MVAR (F) *         (负载无功功率) 9
Columns 60-67   Generation MW (F) *     (生成有功功率) 10
Columns 68-75   Generation MVAR (F) *   (生成无功功率) 11
Columns 77-83   Base KV (F)             (基本电压, 全是0) 12
Columns 85-90   Desired volts (pu) (F) (This is desired remote voltage if
                this bus is controlling another bus.    (目标电压)
Columns 91-98   Maximum MVAR or voltage limit (F)       (最大功率或电压) 13
Columns 99-106  Minimum MVAR or voltage limit (F)       (最小功率或电压) 14
Columns 107-114 Shunt conductance G (per unit) (F) *    (全是0) 16
Columns 115-122 Shunt susceptance B (per unit) (F) *    (分流电纳, 有一点有数值) 17
Columns 124-127 Remote controlled bus number    (数据里都是0) 18

Section end card:
-----------------

Columns  1- 4   -999

Branch Data *
=============

Section start card *:
---------------------

Columns  1-16   BRANCH DATA FOLLOWS (not clear that any more than BRANCH
                is significant) *

Columns 40?- ?  NNNNN ITEMS (column not clear, I would not count on this)

Branch data cards *:
--------------------

Columns  1- 4   Tap bus number (I) *
                 For transformers or phase shifters, the side of the model
                 the non-unity tap is on
Columns  6- 9   Z bus number (I) *
                 For transformers and phase shifters, the side of the model
                 the device impedance is on.
Columns 11-12   Load flow area (I)      (全是1) 2
Columns 13-14   Loss zone (I)           (全是1) 3
Column  17      Circuit (I) * (Use 1 for single lines)      (全是1, 说明没有回环) 4
Column  19      Type (I) *              (全是1/0) 5
                 0 - Transmission line
                 1 - Fixed tap
                 2 - Variable tap for voltage control (TCUL, LTC)
                 3 - Variable tap (turns ratio) for MVAR control
                 4 - Variable phase angle for MW control (phase shifter)
Columns 20-29   Branch resistance R, per unit (F) *                             (标幺电阻) 6
Columns 30-40   Branch reactance X, per unit (F) * No zero impedance lines      (标幺电抗) 7
Columns 41-50   Line charging B, per unit (F) * (total line charging, +B)       (线路的无功充电功率 MVAR, ) 8
Columns 51-55   Line MVA rating No 1 (I) Left justify!
Columns 57-61   Line MVA rating No 2 (I) Left justify!
Columns 63-67   Line MVA rating No 3 (I) Left justify!
Columns 69-72   Control bus number  (全是0)
Column  74      Side (I)    (全是0)
                 0 - Controlled bus is one of the terminals
                 1 - Controlled bus is near the tap side
                 2 - Controlled bus is near the impedance side (Z bus)
Columns 77-82   Transformer final turns ratio (F)       (变压器最终匝数比) 14
Columns 84-90   Transformer (phase shifter) final angle (F)
Columns 91-97   Minimum tap or phase shift (F)
Columns 98-104  Maximum tap or phase shift (F)
Columns 106-111 Step size (F)
Columns 113-119 Minimum voltage, MVAR or MW limit (F)
Columns 120-126 Maximum voltage, MVAR or MW limit (F)

Section end card:
-----------------

Columns  1- 4   -999

Loss Zone Data
==============

Section start card
------------------

Columns  1-16   LOSS ZONES FOLLOWS (not clear that any more than LOSS
                is significant)

Columns 40?- ?  NNNNN ITEMS (column not clear, I would not count on this)

Loss Zone Cards:
----------------

Columns  1- 3   Loss zone number  (I)
Columns  5-16   Loss zone name (A)

Section end card:
-----------------

Columns  1- 3   -99

Interchange Data *
==================

Section start card
------------------

Columns  1-16   INTERCHANGE DATA FOLLOWS (not clear that any more than 
                first word is significant).
Columns 40?- ?  NNNNN ITEMS (column not clear, I would not count on this)

Interchange Data Cards *:
-------------------------

Columns  1- 2   Area number (I) no zeros! *
Columns  4- 7   Interchange slack bus number (I) *
Columns  9-20   Alternate swing bus name (A)
Columns 21-28   Area interchange export, MW (F) (+ = out) *
Columns 30-35   Area interchange tolerance, MW (F) *
Columns 38-43   Area code (abbreviated name) (A) *
Columns 46-75   Area name (A)

Section end card:
-----------------

Columns  1- 2   -9

Tie Line Data
=============

Section start card
------------------

Columns  1-16   TIE LINES FOLLOW (not clear that any more than TIE
                is significant)

Columns 40?- ?  NNNNN ITEMS (column not clear, I would not count on this)

Tie Line Cards:
---------------

Columns  1- 4   Metered bus number (I)
Columns  7-8    Metered area number (I)
Columns  11-14  Non-metered bus number (I)
Columns  17-18  Non-metered area number (I)
Column   21     Circuit number

Section end card:
-----------------

Columns  1- 3   -999

